30

  N     0.0471899798    -0.5286680004    -1.1172659715
  C     0.6047745788    -0.4030386556    -2.4561179966
  C     1.7266947829    -1.4444275369    -2.6024051251
  O     2.0480019909    -2.2203056718    -1.7040564343
  H     0.4857621577    -1.1638738134    -0.4559568312
  H    -0.1839861698    -0.6384626758    -3.1799630598
  C     1.1389940592     1.0028043651    -2.7038507829
  H     0.3523291944     1.7538394500    -2.5780561306
  H     1.9457801632     1.2460463213    -2.0034168654
  H     1.5399206414     1.1027554181    -3.7180526246
  H    -0.6599307166     0.1272345217    -0.7978565177
  N     2.4082027952    -1.5379928703    -3.7523592862
  C     3.4725932404    -2.5256953027    -3.8910592649
  C     4.0350720855    -2.3630815389    -5.3124749067
  O     3.6104723372    -1.5337641615    -6.1144025014
  C     2.9271992003    -3.9417346572    -3.6604843017
  C     4.0379795650    -4.9656266837    -3.4352660818
  S     3.3167065476    -6.6032623567    -3.0930013684
  C     4.8449171111    -7.5121088601    -2.7624298674
  H     4.2566124578    -2.2877323855    -3.1623397906
  H     2.3076192920    -4.2410462695    -4.5169307666
  H     2.2670852046    -3.9312949620    -2.7828901333
  H     4.6579645647    -4.6667328434    -2.5836591279
  H     4.6734611493    -5.0555004323    -4.3197862293
  H     5.5019807708    -7.4833991628    -3.6354897317
  H     4.6034363606    -8.5554315154    -2.5428144522
  H     5.3611835763    -7.0858007234    -1.8983740755
  H     1.9017276565    -1.2731805895    -4.5926321974
  O     5.0451056593    -3.1881507744    -5.6650327069
  H     5.4126185447    -3.9059651564    -4.9709370848
