30

  N    -0.7278750000     0.0000000000     0.0000000000
  C     0.7278750000     0.0000000000     0.0000000000
  C     1.2022650000     1.4627200000     0.0000000000
  O     0.4321650000     2.4214700000     0.0000000000
  H    -1.2229150000     0.8830400000    -0.0913100000
  H     1.0711650000    -0.4763200000     0.9256300000
  C     1.2816550000    -0.7459700000    -1.2083100000
  H     0.9294650000    -1.7824100000    -1.2300800000
  H     0.9674750000    -0.2684900000    -2.1431800000
  H     2.3766050000    -0.7633000000    -1.1972700000
  H    -1.2358750000    -0.8765300000    -0.0766900000
  N     2.5128350000     1.7420200000     0.0000000000
  C     2.9628450000     3.1295400000    -0.0002200000
  C     4.4995950000     3.0889500000    -0.0001600000
  O     5.1460650000     2.0433800000     0.0000400000
  C     2.4196850000     3.8724700000     1.2281200000
  C     2.5496450000     5.3887400000     1.0979400000
  S     1.8172750000     6.2047300000     2.5529400000
  C     2.0201550000     7.9250800000     2.0333800000
  H     2.6134750000     3.6019000000    -0.9260500000
  H     2.9442150000     3.5258800000     2.1290700000
  H     1.3606250000     3.6144300000     1.3616800000
  H     2.0296850000     5.7349400000     0.1986400000
  H     3.5987850000     5.6883500000     1.0360600000
  H     3.0772550000     8.1530900000     1.8741900000
  H     1.6356450000     8.5854000000     2.8151700000
  H     1.4600150000     8.1128000000     1.1136700000
  H     3.1144950000     1.0539200000     0.4441000000
  O     5.1395050000     4.2787900000    -0.0003400000
  H     4.5799650000     5.1837800000    -0.0005100000
