30

  N    -1.8385306524    -0.0786871452     0.0000000000
  C    -0.5562933691     0.6105701448     0.0000000000
  C     0.5541108679    -0.4531958543     0.0000000000
  O     0.3297416389    -1.6622922201     0.0000000000
  H    -1.8564712242    -1.0908641945     0.0913100000
  H    -0.4794448686     1.1926552541    -0.9256300000
  C    -0.4217152464     1.5298265063     1.2083100000
  H    -1.2226528899     2.2759796816     1.2300800000
  H    -0.4723741774     0.9605024373     2.1431800000
  H     0.5345209786     2.0635194081     1.1972700000
  H    -2.7009941471     0.4528441909     0.0766900000
  N     1.8407131536    -0.0786871452     0.0000000000
  C     2.8940381579    -1.0877595837     0.0002200000
  C     4.2284027065    -0.3243990123     0.0001600000
  O     4.3027706899     0.9026337863    -0.0000400000
  C     2.7673748679    -1.9993100109    -1.2281200000
  C     3.5997566013    -3.2733213784    -1.0979400000
  S     3.3410273806    -4.3388093827    -2.5529400000
  C     4.3342639108    -5.7580505926    -2.0333800000
  H     2.8099593901    -1.6692354020     0.9260500000
  H     3.0652847000    -1.4456800976    -2.1290700000
  H     1.7123708024    -2.2734616970    -1.3616800000
  H     3.3056874109    -3.8244440079    -0.1986400000
  H     4.6657052876    -3.0404817557    -1.0360600000
  H     5.3733232183    -5.4583762266    -1.8741900000
  H     4.3082273770    -6.5217210329    -2.8151700000
  H     3.9297679373    -6.1886067741    -1.1136700000
  H     2.0448642391     0.8122666695    -0.4441000000
  O     5.3553972824    -1.0694407961     0.0003400000
  H     5.2910372655    -2.1314905595     0.0005100000
